<?xml version="1.0" encoding="UTF-8"?>

<!-- generated on 月  7/ 4 13:52:15 2022 by Eclipse SUMO netedit Version 1.3.1
<configuration xmlns:xsi="http://www.w3.org/2001/XMLSchema-instance" xsi:noNamespaceSchemaLocation="http://sumo.dlr.de/xsd/netconvertConfiguration.xsd">

    <input>
        <sumo-net-file value="1_1merging.net.xml"/>
    </input>

    <output>
        <output-file value="1_1merging.net.xml"/>
    </output>

    <processing>
        <geometry.max-grade.fix value="false"/>
        <offset.disable-normalization value="true"/>
        <opposites.guess.fix-lengths value="true"/>
        <lefthand value="false"/>
    </processing>

    <junctions>
        <no-turnarounds value="true"/>
        <junctions.corner-detail value="5"/>
        <junctions.limit-turn-speed value="5.5"/>
        <rectangular-lane-cut value="false"/>
    </junctions>

    <pedestrian>
        <walkingareas value="false"/>
    </pedestrian>

</configuration>
-->

<net version="1.3" junctionCornerDetail="5" limitTurnSpeed="5.50" xmlns:xsi="http://www.w3.org/2001/XMLSchema-instance" xsi:noNamespaceSchemaLocation="http://sumo.dlr.de/xsd/net_file.xsd">

    <location netOffset="0.00,0.00" convBoundary="-400.00,-200.00,100.00,0.00" origBoundary="-10000000000.00,-10000000000.00,10000000000.00,10000000000.00" projParameter="!"/>

    <edge id=":gneJ5_0" function="internal">
        <lane id=":gneJ5_0_0" index="0" speed="13.89" length="9.32" shape="-5.92,-5.34 -3.61,-3.78 -2.01,-2.60 -0.29,-1.86 2.37,-1.60"/>
    </edge>
    <edge id=":gneJ5_1" function="internal">
        <lane id=":gneJ5_1_0" index="0" speed="13.89" length="9.31" shape="-6.94,-1.60 2.37,-1.60"/>
    </edge>

    <edge id="gneE3" from="gneJ4" to="gneJ5" priority="-1">
        <lane id="gneE3_0" index="0" speed="13.89" length="393.06" shape="-400.00,-1.60 -6.94,-1.60"/>
    </edge>
    <edge id="gneE4" from="gneJ5" to="gneJ6" priority="-1">
        <lane id="gneE4_0" index="0" speed="13.89" length="97.63" shape="2.37,-1.60 100.00,-1.60"/>
    </edge>
    <edge id="gneE6" from="gneJ8" to="gneJ5" priority="-1">
        <lane id="gneE6_0" index="0" speed="13.89" length="386.65" shape="-339.19,-201.38 -5.92,-5.34"/>
    </edge>

    <junction id="gneJ4" type="dead_end" x="-400.00" y="0.00" incLanes="" intLanes="" shape="-400.00,0.00 -400.00,-3.20"/>
    <junction id="gneJ5" type="zipper" x="0.00" y="0.00" incLanes="gneE6_0 gneE3_0" intLanes=":gneJ5_0_0 :gneJ5_1_0" shape="2.37,0.00 2.37,-3.20 -0.61,-3.65 -1.58,-4.17 -2.51,-4.87 -3.61,-5.73 -5.11,-6.72 -6.73,-3.96 -6.94,-3.20 -6.94,0.00">
        <request index="0" response="10" foes="10" cont="0"/>
        <request index="1" response="01" foes="01" cont="0"/>
    </junction>
    <junction id="gneJ6" type="dead_end" x="100.00" y="0.00" incLanes="gneE4_0" intLanes="" shape="100.00,-3.20 100.00,0.00"/>
    <junction id="gneJ8" type="dead_end" x="-340.00" y="-200.00" incLanes="" intLanes="" shape="-340.00,-200.00 -338.38,-202.76"/>

    <connection from="gneE3" to="gneE4" fromLane="0" toLane="0" via=":gneJ5_1_0" dir="s" state="Z"/>
    <connection from="gneE6" to="gneE4" fromLane="0" toLane="0" via=":gneJ5_0_0" dir="s" state="Z"/>

    <connection from=":gneJ5_0" to="gneE4" fromLane="0" toLane="0" dir="s" state="M"/>
    <connection from=":gneJ5_1" to="gneE4" fromLane="0" toLane="0" dir="s" state="M"/>

</net>
