<?xml version="1.0" encoding="UTF-8"?>

<!-- generated on ç«  7/ 5 15:19:19 2022 by Eclipse SUMO netedit Version 1.3.1
<configuration xmlns:xsi="http://www.w3.org/2001/XMLSchema-instance" xsi:noNamespaceSchemaLocation="http://sumo.dlr.de/xsd/netconvertConfiguration.xsd">

    <input>
        <sumo-net-file value="2_2lane.net.xml"/>
    </input>

    <output>
        <output-file value="2_2lane.net.xml"/>
    </output>

    <processing>
        <geometry.max-grade.fix value="false"/>
        <offset.disable-normalization value="true"/>
        <opposites.guess.fix-lengths value="true"/>
        <lefthand value="false"/>
    </processing>

    <junctions>
        <no-internal-links value="true"/>
        <no-turnarounds value="true"/>
        <junctions.corner-detail value="5"/>
        <junctions.limit-turn-speed value="5.5"/>
        <rectangular-lane-cut value="false"/>
    </junctions>

    <pedestrian>
        <walkingareas value="false"/>
    </pedestrian>

</configuration>
-->

<net version="1.3" junctionCornerDetail="5" limitTurnSpeed="5.50" xmlns:xsi="http://www.w3.org/2001/XMLSchema-instance" xsi:noNamespaceSchemaLocation="http://sumo.dlr.de/xsd/net_file.xsd">

    <location netOffset="0.00,0.00" convBoundary="-530.00,0.00,530.00,0.00" origBoundary="-10000000000.00,-10000000000.00,10000000000.00,10000000000.00" projParameter="!"/>

    <edge id="gneE0" from="gneJ0" to="gneJ1" priority="-1">
        <lane id="gneE0_0" index="0" speed="100.00" length="1000.00" shape="-500.00,-4.80 500.00,-4.80"/>
        <lane id="gneE0_1" index="1" speed="100.00" length="1000.00" shape="-500.00,-1.60 500.00,-1.60"/>
    </edge>
    <edge id="gneE1" from="gneJ1" to="gneJ0" priority="-1">
        <lane id="gneE1_0" index="0" speed="100.00" length="1000.00" shape="500.00,4.80 -500.00,4.80"/>
        <lane id="gneE1_1" index="1" speed="100.00" length="1000.00" shape="500.00,1.60 -500.00,1.60"/>
    </edge>
    <edge id="gneE2" from="gneJ1" to="gneJ2" priority="-1">
        <lane id="gneE2_0" index="0" speed="13.89" length="30.00" shape="500.00,-4.80 530.00,-4.80"/>
        <lane id="gneE2_1" index="1" speed="13.89" length="30.00" shape="500.00,-1.60 530.00,-1.60"/>
    </edge>
    <edge id="gneE3" from="gneJ2" to="gneJ1" priority="-1">
        <lane id="gneE3_0" index="0" speed="13.89" length="30.00" shape="530.00,4.80 500.00,4.80"/>
        <lane id="gneE3_1" index="1" speed="13.89" length="30.00" shape="530.00,1.60 500.00,1.60"/>
    </edge>
    <edge id="gneE4" from="gneJ3" to="gneJ0" priority="-1">
        <lane id="gneE4_0" index="0" speed="13.89" length="30.00" shape="-530.00,-4.80 -500.00,-4.80"/>
        <lane id="gneE4_1" index="1" speed="13.89" length="30.00" shape="-530.00,-1.60 -500.00,-1.60"/>
    </edge>
    <edge id="gneE5" from="gneJ0" to="gneJ3" priority="-1">
        <lane id="gneE5_0" index="0" speed="13.89" length="30.00" shape="-500.00,4.80 -530.00,4.80"/>
        <lane id="gneE5_1" index="1" speed="13.89" length="30.00" shape="-500.00,1.60 -530.00,1.60"/>
    </edge>

    <junction id="gneJ0" type="priority" x="-500.00" y="0.00" incLanes="gneE1_0 gneE1_1 gneE4_0 gneE4_1" intLanes="" shape="-500.00,6.40 -500.00,-6.40 -500.00,6.40">
        <request index="0" response="0000" foes="0000"/>
        <request index="1" response="0000" foes="0000"/>
        <request index="2" response="0000" foes="0000"/>
        <request index="3" response="0000" foes="0000"/>
    </junction>
    <junction id="gneJ1" type="priority" x="500.00" y="0.00" incLanes="gneE3_0 gneE3_1 gneE0_0 gneE0_1" intLanes="" shape="500.00,6.40 500.00,-6.40 500.00,6.40">
        <request index="0" response="0000" foes="0000"/>
        <request index="1" response="0000" foes="0000"/>
        <request index="2" response="0000" foes="0000"/>
        <request index="3" response="0000" foes="0000"/>
    </junction>
    <junction id="gneJ2" type="dead_end" x="530.00" y="0.00" incLanes="gneE2_0 gneE2_1" intLanes="" shape="530.00,0.00 530.00,-6.40 530.00,0.00"/>
    <junction id="gneJ3" type="dead_end" x="-530.00" y="0.00" incLanes="gneE5_0 gneE5_1" intLanes="" shape="-530.00,0.00 -530.00,6.40 -530.00,0.00"/>

    <connection from="gneE0" to="gneE2" fromLane="0" toLane="0" dir="s" state="M"/>
    <connection from="gneE0" to="gneE2" fromLane="1" toLane="1" dir="s" state="M"/>
    <connection from="gneE1" to="gneE5" fromLane="0" toLane="0" dir="s" state="M"/>
    <connection from="gneE1" to="gneE5" fromLane="1" toLane="1" dir="s" state="M"/>
    <connection from="gneE3" to="gneE1" fromLane="0" toLane="0" dir="s" state="M"/>
    <connection from="gneE3" to="gneE1" fromLane="1" toLane="1" dir="s" state="M"/>
    <connection from="gneE4" to="gneE0" fromLane="0" toLane="0" dir="s" state="M"/>
    <connection from="gneE4" to="gneE0" fromLane="1" toLane="1" dir="s" state="M"/>

</net>
