<?xml version="1.0" encoding="UTF-8"?>

<!-- generated on 月  6/27 11:24:21 2022 by Eclipse SUMO netedit Version 1.3.1
<configuration xmlns:xsi="http://www.w3.org/2001/XMLSchema-instance" xsi:noNamespaceSchemaLocation="http://sumo.dlr.de/xsd/netconvertConfiguration.xsd">

    <output>
        <output-file value="/Users/yoshida/gitlab/PythonRobotics/PathPlanning/FrenetOptimalTrajectory/dynamic_map/usecase/c-1.net.xml"/>
    </output>

    <processing>
        <offset.disable-normalization value="true"/>
    </processing>

    <junctions>
        <no-turnarounds value="true"/>
    </junctions>

</configuration>
-->

<net version="1.3" junctionCornerDetail="5" limitTurnSpeed="5.50" xmlns:xsi="http://www.w3.org/2001/XMLSchema-instance" xsi:noNamespaceSchemaLocation="http://sumo.dlr.de/xsd/net_file.xsd">

    <location netOffset="0.00,0.00" convBoundary="-500.00,0.00,500.00,0.00" origBoundary="10000000000.00,10000000000.00,-10000000000.00,-10000000000.00" projParameter="!"/>

    <edge id="gneE0" from="gneJ0" to="gneJ1" priority="-1">
        <lane id="gneE0_0" index="0" speed="100.00" length="1000.00" shape="-500.00,-4.80 500.00,-4.80"/>
        <lane id="gneE0_1" index="1" speed="100.00" length="1000.00" shape="-500.00,-1.60 500.00,-1.60"/>
    </edge>

    <junction id="gneJ0" type="dead_end" x="-500.00" y="0.00" incLanes="" intLanes="" shape="-500.00,0.00 -500.00,-6.40"/>
    <junction id="gneJ1" type="dead_end" x="500.00" y="0.00" incLanes="gneE0_0 gneE0_1" intLanes="" shape="500.00,-6.40 500.00,0.00"/>

</net>
