<?xml version="1.0" encoding="UTF-8"?>

<!-- generated on 月  6/27 11:50:18 2022 by Eclipse SUMO netedit Version 1.3.1
<configuration xmlns:xsi="http://www.w3.org/2001/XMLSchema-instance" xsi:noNamespaceSchemaLocation="http://sumo.dlr.de/xsd/netconvertConfiguration.xsd">

    <input>
        <sumo-net-file value="/Users/yoshida/gitlab/PythonRobotics/PathPlanning/FrenetOptimalTrajectory/dynamic_map/usecase/merging.net.xml"/>
    </input>

    <output>
        <output-file value="/Users/yoshida/gitlab/PythonRobotics/PathPlanning/FrenetOptimalTrajectory/dynamic_map/usecase/merging.net.xml"/>
    </output>

    <processing>
        <geometry.max-grade.fix value="false"/>
        <offset.disable-normalization value="true"/>
        <opposites.guess.fix-lengths value="true"/>
        <lefthand value="false"/>
    </processing>

    <junctions>
        <no-turnarounds value="true"/>
        <junctions.corner-detail value="5"/>
        <junctions.limit-turn-speed value="5.5"/>
        <rectangular-lane-cut value="false"/>
    </junctions>

    <pedestrian>
        <walkingareas value="false"/>
    </pedestrian>

</configuration>
-->

<net version="1.3" junctionCornerDetail="5" limitTurnSpeed="5.50" xmlns:xsi="http://www.w3.org/2001/XMLSchema-instance" xsi:noNamespaceSchemaLocation="http://sumo.dlr.de/xsd/net_file.xsd">

    <location netOffset="0.00,0.00" convBoundary="-400.00,0.00,200.00,200.00" origBoundary="-10000000000.00,-10000000000.00,10000000000.00,10000000000.00" projParameter="!"/>

    <edge id=":gneJ1_0" function="internal">
        <lane id=":gneJ1_0_0" index="0" speed="56.95" length="10.01" shape="-7.81,-4.80 2.20,-4.80"/>
        <lane id=":gneJ1_0_1" index="1" speed="56.95" length="10.01" shape="-7.81,-1.60 2.20,-1.60"/>
    </edge>
    <edge id=":gneJ1_2" function="internal">
        <lane id=":gneJ1_2_0" index="0" speed="13.89" length="9.97" shape="-6.79,2.14 -4.30,0.51 -2.55,-0.66 -0.67,-1.36 2.20,-1.60"/>
    </edge>

    <edge id="gneE0" from="gneJ0" to="gneJ1" priority="-1" length="400.00">
        <lane id="gneE0_0" index="0" speed="100.00" length="400.00" shape="-400.00,-4.80 -7.81,-4.80"/>
        <lane id="gneE0_1" index="1" speed="100.00" length="400.00" shape="-400.00,-1.60 -7.81,-1.60"/>
    </edge>
    <edge id="gneE1" from="gneJ2" to="gneJ1" priority="-1">
        <lane id="gneE1_0" index="0" speed="13.89" length="387.52" shape="-340.81,198.62 -6.79,2.14"/>
    </edge>
    <edge id="gneE2" from="gneJ1" to="gneJ3" priority="-1">
        <lane id="gneE2_0" index="0" speed="13.89" length="197.80" shape="2.20,-4.80 200.00,-4.80"/>
        <lane id="gneE2_1" index="1" speed="13.89" length="197.80" shape="2.20,-1.60 200.00,-1.60"/>
    </edge>

    <junction id="gneJ0" type="dead_end" x="-400.00" y="0.00" incLanes="" intLanes="" shape="-400.00,0.00 -400.00,-6.40" fringe="outer"/>
    <junction id="gneJ1" type="priority" x="0.00" y="0.00" incLanes="gneE0_0 gneE0_1 gneE1_0" intLanes=":gneJ1_0_0 :gneJ1_0_1 :gneJ1_2_0" shape="2.20,0.00 2.20,-6.40 -7.81,-6.40 -7.81,0.00 -7.60,0.76 -5.98,3.52 -3.38,1.67 -2.45,0.97 -1.49,0.45 -0.24,0.12" customShape="1">
        <request index="0" response="000" foes="100" cont="0"/>
        <request index="1" response="000" foes="100" cont="0"/>
        <request index="2" response="011" foes="011" cont="0"/>
    </junction>
    <junction id="gneJ2" type="dead_end" x="-340.00" y="200.00" incLanes="" intLanes="" shape="-340.00,200.00 -341.62,197.24"/>
    <junction id="gneJ3" type="dead_end" x="200.00" y="0.00" incLanes="gneE2_0 gneE2_1" intLanes="" shape="200.00,-6.40 200.00,0.00"/>

    <connection from="gneE0" to="gneE2" fromLane="0" toLane="0" via=":gneJ1_0_0" dir="s" state="M"/>
    <connection from="gneE0" to="gneE2" fromLane="1" toLane="1" via=":gneJ1_0_1" dir="s" state="M"/>
    <connection from="gneE1" to="gneE2" fromLane="0" toLane="1" via=":gneJ1_2_0" dir="s" state="m"/>

    <connection from=":gneJ1_0" to="gneE2" fromLane="0" toLane="0" dir="s" state="M"/>
    <connection from=":gneJ1_0" to="gneE2" fromLane="1" toLane="1" dir="s" state="M"/>
    <connection from=":gneJ1_2" to="gneE2" fromLane="0" toLane="1" dir="s" state="M"/>

</net>
