<?xml version="1.0" encoding="UTF-8"?>

<!-- generated on ç«  7/ 5 19:56:08 2022 by Eclipse SUMO netedit Version 1.3.1
<configuration xmlns:xsi="http://www.w3.org/2001/XMLSchema-instance" xsi:noNamespaceSchemaLocation="http://sumo.dlr.de/xsd/netconvertConfiguration.xsd">

    <processing>
        <offset.disable-normalization value="true"/>
    </processing>

    <junctions>
        <no-turnarounds value="true"/>
    </junctions>

</configuration>
-->

<net version="1.3" junctionCornerDetail="5" limitTurnSpeed="5.50" xmlns:xsi="http://www.w3.org/2001/XMLSchema-instance" xsi:noNamespaceSchemaLocation="http://sumo.dlr.de/xsd/net_file.xsd">

    <location netOffset="0.00,0.00" convBoundary="0.00,100.00,200.00,100.00" origBoundary="10000000000.00,10000000000.00,-10000000000.00,-10000000000.00" projParameter="!"/>

    <edge id=":gneJ1_0" function="internal">
        <lane id=":gneJ1_0_0" index="0" speed="13.89" length="8.00" shape="96.00,98.40 104.00,98.40"/>
    </edge>
    <edge id=":gneJ2_0" function="internal">
        <lane id=":gneJ2_0_0" index="0" speed="13.89" length="8.40" shape="116.00,98.40 118.46,97.90 120.00,96.80 121.54,95.70 124.00,95.20"/>
        <lane id=":gneJ2_0_1" index="1" speed="13.89" length="8.40" shape="116.00,98.40 124.00,98.40"/>
    </edge>

    <edge id="gneE0" from="gneJ0" to="gneJ1" priority="-1">
        <lane id="gneE0_0" index="0" speed="13.89" length="96.00" shape="0.00,95.20 96.00,95.20"/>
        <lane id="gneE0_1" index="1" speed="13.89" length="96.00" shape="0.00,98.40 96.00,98.40"/>
    </edge>
    <edge id="gneE1" from="gneJ1" to="gneJ2" priority="-1">
        <lane id="gneE1_0" index="0" speed="13.89" length="12.00" shape="104.00,98.40 116.00,98.40"/>
    </edge>
    <edge id="gneE2" from="gneJ2" to="gneJ3" priority="-1">
        <lane id="gneE2_0" index="0" speed="13.89" length="76.00" shape="124.00,95.20 200.00,95.20"/>
        <lane id="gneE2_1" index="1" speed="13.89" length="76.00" shape="124.00,98.40 200.00,98.40"/>
    </edge>

    <junction id="gneJ0" type="dead_end" x="0.00" y="100.00" incLanes="" intLanes="" shape="0.00,100.00 0.00,93.60"/>
    <junction id="gneJ1" type="priority" x="100.00" y="100.00" incLanes="gneE0_0 gneE0_1" intLanes=":gneJ1_0_0" shape="104.00,100.00 104.00,96.80 100.97,95.97 99.03,94.43 97.79,93.84 96.00,93.60 96.00,100.00">
        <request index="0" response="0" foes="0" cont="0"/>
    </junction>
    <junction id="gneJ2" type="priority" x="120.00" y="100.00" incLanes="gneE1_0" intLanes=":gneJ2_0_0 :gneJ2_0_1" shape="124.00,100.00 124.00,93.60 120.97,94.43 119.03,95.97 117.79,96.56 116.00,96.80 116.00,100.00">
        <request index="0" response="00" foes="00" cont="0"/>
        <request index="1" response="00" foes="00" cont="0"/>
    </junction>
    <junction id="gneJ3" type="dead_end" x="200.00" y="100.00" incLanes="gneE2_0 gneE2_1" intLanes="" shape="200.00,93.60 200.00,100.00"/>

    <connection from="gneE0" to="gneE1" fromLane="1" toLane="0" via=":gneJ1_0_0" dir="s" state="M"/>
    <connection from="gneE1" to="gneE2" fromLane="0" toLane="0" via=":gneJ2_0_0" dir="s" state="M"/>
    <connection from="gneE1" to="gneE2" fromLane="0" toLane="1" via=":gneJ2_0_1" dir="s" state="M"/>

    <connection from=":gneJ1_0" to="gneE1" fromLane="0" toLane="0" dir="s" state="M"/>
    <connection from=":gneJ2_0" to="gneE2" fromLane="0" toLane="0" dir="s" state="M"/>
    <connection from=":gneJ2_0" to="gneE2" fromLane="1" toLane="1" dir="s" state="M"/>

</net>
