<?xml version="1.0" encoding="UTF-8"?>

<!-- generated on 木  6/30 19:54:52 2022 by Eclipse SUMO netedit Version 1.3.1
<configuration xmlns:xsi="http://www.w3.org/2001/XMLSchema-instance" xsi:noNamespaceSchemaLocation="http://sumo.dlr.de/xsd/netconvertConfiguration.xsd">

    <processing>
        <offset.disable-normalization value="true"/>
    </processing>

    <junctions>
        <no-turnarounds value="true"/>
    </junctions>

</configuration>
-->

<net version="1.3" junctionCornerDetail="5" limitTurnSpeed="5.50" xmlns:xsi="http://www.w3.org/2001/XMLSchema-instance" xsi:noNamespaceSchemaLocation="http://sumo.dlr.de/xsd/net_file.xsd">

    <location netOffset="0.00,0.00" convBoundary="-8.13,77.88,71.18,78.76" origBoundary="10000000000.00,10000000000.00,-10000000000.00,-10000000000.00" projParameter="!"/>

    <edge id=":gneJ1_0" function="internal">
        <lane id=":gneJ1_0_0" index="0" speed="13.89" length="7.93" shape="31.93,76.28 39.86,76.37"/>
    </edge>

    <edge id="gneE0" from="gneJ0" to="gneJ1" priority="-1">
        <lane id="gneE0_0" index="0" speed="13.89" length="40.06" shape="-8.13,69.88 31.93,69.88"/>
        <lane id="gneE0_1" index="1" speed="13.89" length="40.06" shape="-8.13,73.08 31.93,73.08"/>
        <lane id="gneE0_2" index="2" speed="13.89" length="40.06" shape="-8.13,76.28 31.93,76.28"/>
    </edge>
    <edge id="gneE1" from="gneJ1" to="gneJ2" priority="-1">
        <lane id="gneE1_0" index="0" speed="13.89" length="31.37" shape="39.86,76.37 71.22,77.16"/>
    </edge>

    <junction id="gneJ0" type="dead_end" x="-8.13" y="77.88" incLanes="" intLanes="" shape="-8.13,77.88 -8.13,68.28"/>
    <junction id="gneJ1" type="priority" x="35.90" y="77.88" incLanes="gneE0_0 gneE0_1 gneE0_2" intLanes=":gneJ1_0_0" shape="39.82,77.97 39.90,74.78 37.88,74.25 36.69,73.03 35.92,71.48 35.14,69.93 33.95,68.75 31.93,68.28 31.93,77.88">
        <request index="0" response="0" foes="0" cont="0"/>
    </junction>
    <junction id="gneJ2" type="dead_end" x="71.18" y="78.76" incLanes="gneE1_0" intLanes="" shape="71.26,75.56 71.18,78.76"/>

    <connection from="gneE0" to="gneE1" fromLane="2" toLane="0" via=":gneJ1_0_0" dir="s" state="M"/>

    <connection from=":gneJ1_0" to="gneE1" fromLane="0" toLane="0" dir="s" state="M"/>

</net>
